Version 4.1
SHEET 1 2308 820
WIRE -272 -304 -512 -304
WIRE -144 -304 -272 -304
WIRE 224 -304 -144 -304
WIRE 640 -304 224 -304
WIRE 704 -304 640 -304
WIRE 944 -304 832 -304
WIRE -272 -288 -272 -304
WIRE 224 -288 224 -304
WIRE 640 -272 640 -304
WIRE -608 -256 -656 -256
WIRE -512 -256 -512 -304
WIRE -512 -256 -544 -256
WIRE -480 -256 -512 -256
WIRE -368 -256 -416 -256
WIRE 0 -240 -16 -240
WIRE 192 -240 80 -240
WIRE -272 -208 -272 -224
WIRE 704 -208 672 -208
WIRE 880 -208 832 -208
WIRE 128 -192 112 -192
WIRE 224 -192 192 -240
WIRE 224 -192 224 -208
WIRE 224 -192 192 -192
WIRE 304 -192 224 -192
WIRE 416 -192 368 -192
WIRE 544 -192 496 -192
WIRE 624 -192 544 -192
WIRE 640 -192 640 -208
WIRE 672 -176 672 -208
WIRE 704 -176 672 -176
WIRE 880 -176 880 -208
WIRE 880 -176 832 -176
WIRE -144 -160 -144 -304
WIRE -656 -144 -656 -256
WIRE -592 -144 -656 -144
WIRE -496 -144 -512 -144
WIRE -368 -144 -368 -256
WIRE -368 -144 -416 -144
WIRE 224 -112 224 -192
WIRE 944 -96 944 -304
WIRE 1040 -96 1008 -96
WIRE 1152 -96 1040 -96
WIRE 1296 -96 1152 -96
WIRE 640 -80 640 -128
WIRE 704 -80 640 -80
WIRE 1152 -80 1152 -96
WIRE 1296 -80 1296 -96
WIRE -144 -64 -144 -80
WIRE 64 -64 -144 -64
WIRE 544 -64 544 -192
WIRE 544 -64 528 -64
WIRE 1040 -64 1040 -96
WIRE -144 -48 -144 -64
WIRE 624 -48 624 -192
WIRE 704 -48 624 -48
WIRE -656 -32 -656 -144
WIRE -608 -32 -656 -32
WIRE -512 -32 -544 -32
WIRE -480 -32 -512 -32
WIRE -368 -32 -368 -144
WIRE -368 -32 -416 -32
WIRE -512 16 -512 -32
WIRE -16 32 -32 32
WIRE 64 32 48 32
WIRE 544 32 544 16
WIRE 544 32 384 32
WIRE 832 32 832 -80
WIRE 1040 32 1040 0
WIRE 1040 32 832 32
WIRE 1152 32 1152 0
WIRE 1152 32 1040 32
WIRE 1296 32 1296 -16
WIRE 1296 32 1152 32
WIRE -144 48 -144 32
WIRE 544 48 544 32
WIRE 1296 48 1296 32
WIRE 704 80 704 48
WIRE 64 128 -32 128
WIRE 400 128 384 128
WIRE 544 128 464 128
WIRE -32 144 -32 128
WIRE 544 144 544 128
WIRE 640 144 640 -80
WIRE 48 224 -32 224
WIRE 64 224 48 224
WIRE 448 224 384 224
WIRE 592 224 528 224
WIRE 48 320 48 224
WIRE 64 320 48 320
WIRE 640 320 640 240
WIRE 640 320 384 320
WIRE 640 336 640 320
WIRE 48 416 48 320
WIRE 64 416 48 416
WIRE 416 416 384 416
WIRE 416 432 416 416
WIRE 640 432 640 416
WIRE 64 512 -32 512
WIRE 416 512 416 496
WIRE 416 512 384 512
WIRE -32 528 -32 512
WIRE 224 576 224 560
WIRE -32 624 -32 608
FLAG 224 576 0
FLAG -32 32 0
FLAG 640 432 0
FLAG -32 624 0
FLAG 112 -192 0
FLAG -144 48 0
FLAG -16 -240 0
FLAG 544 144 0
FLAG -512 16 0
FLAG -272 -208 0
FLAG 1296 48 0
FLAG 1296 -96 OUT
FLAG 704 80 0
SYMBOL cap 48 16 R90
WINDOW 0 0 32 VBottom 2
WINDOW 3 32 32 VTop 2
SYMATTR InstName C1
SYMATTR Value 10n
SYMBOL cap 400 144 R270
WINDOW 0 32 32 VTop 2
WINDOW 3 0 32 VBottom 2
SYMATTR InstName C2
SYMATTR Value 4.7µ
SYMBOL cap 400 432 R0
SYMATTR InstName C3
SYMATTR Value 10n
SYMBOL res 624 320 R0
SYMATTR InstName R1
SYMATTR Value 0.03
SYMBOL res -48 128 R0
SYMATTR InstName R2
SYMATTR Value 200K
SYMBOL cap 448 -80 R90
WINDOW 0 0 32 VBottom 2
WINDOW 3 32 32 VTop 2
WINDOW 39 53 32 VTop 2
SYMATTR InstName C4
SYMATTR Value 4.7p
SYMBOL cap 192 -208 R90
WINDOW 0 0 32 VBottom 2
WINDOW 3 32 32 VTop 2
SYMATTR InstName C5
SYMATTR Value 10µ
SYMBOL res -160 -176 R0
SYMATTR InstName R5
SYMATTR Value 1Meg
SYMBOL res -160 -64 R0
SYMATTR InstName R6
SYMATTR Value 3.48k
SYMBOL diode 368 -208 R90
WINDOW 0 0 32 VBottom 2
WINDOW 3 32 32 VTop 2
SYMATTR InstName D1
SYMATTR Value 1N4148
SYMBOL res 208 -304 R0
SYMATTR InstName R7
SYMATTR Value 500k
SYMBOL diode 944 -80 R270
WINDOW 0 32 32 VTop 2
WINDOW 3 0 32 VBottom 2
SYMATTR InstName D4
SYMATTR Value MURS320
SYMBOL cap 1024 -64 R0
SYMATTR InstName C6
SYMATTR Value 680µ
SYMBOL LED 1280 -80 R0
WINDOW 123 43 97 Left 2
SYMATTR Value2 N=11
SYMATTR InstName D5
SYMATTR Value PT-121-B
SYMATTR Description Diode
SYMATTR Type diode
SYMBOL current 0 -240 M90
WINDOW 0 -32 40 VBottom 2
WINDOW 3 32 40 VTop 2
WINDOW 123 60 41 VTop 2
WINDOW 39 82 40 VTop 2
SYMATTR InstName I1
SYMATTR Value pwl(0 0
SYMATTR Value2 10u 28
SYMATTR SpiceLine 20u 0)
SYMBOL res 528 32 R0
SYMATTR InstName R8
SYMATTR Value 9.31k
SYMBOL res 528 -80 R0
SYMATTR InstName R9
SYMATTR Value 200k
SYMBOL diode -608 -240 R270
WINDOW 3 0 32 VBottom 2
WINDOW 0 32 32 VTop 2
SYMATTR Value 1N4007
SYMATTR InstName D6
SYMBOL diode -480 -16 R270
WINDOW 0 32 32 VTop 2
WINDOW 3 0 32 VBottom 2
SYMATTR InstName D7
SYMATTR Value 1N4007
SYMBOL diode -544 -16 M270
WINDOW 0 32 32 VTop 2
WINDOW 3 0 32 VBottom 2
SYMATTR InstName D8
SYMATTR Value 1N4007
SYMBOL diode -416 -240 M270
WINDOW 0 32 32 VTop 2
WINDOW 3 0 32 VBottom 2
SYMATTR InstName D9
SYMATTR Value 1N4007
SYMBOL voltage -608 -144 R270
WINDOW 0 32 56 VTop 2
WINDOW 3 -32 56 VBottom 2
WINDOW 123 0 0 Left 2
SYMATTR InstName V1
SYMATTR Value SINE(0 393 50)
SYMATTR SpiceLine Rser=1
SYMBOL cap -288 -288 R0
WINDOW 3 24 59 Left 2
SYMATTR Value 0.47µ
SYMATTR InstName C7
SYMBOL ind -512 -128 R270
WINDOW 0 32 56 VTop 2
WINDOW 3 5 56 VBottom 2
SYMATTR InstName L4
SYMATTR Value 10m
SYMATTR SpiceLine Rser=2
SYMBOL current 1152 0 M180
WINDOW 0 24 77 Left 2
WINDOW 3 36 48 Left 2
WINDOW 123 29 19 Left 2
WINDOW 39 17 -4 Left 2
SYMATTR InstName I2
SYMATTR Value pwl(0 0
SYMATTR Value2 10u 800
SYMATTR SpiceLine 20u 0)
SYMBOL PowerProducts\\LT3799-1 224 224 R0
SYMATTR InstName U1
SYMBOL res 544 -80 R90
WINDOW 0 0 56 VBottom 2
WINDOW 3 32 56 VTop 2
SYMATTR InstName R10
SYMATTR Value 200k
SYMBOL res 512 -208 R90
WINDOW 0 0 56 VBottom 2
WINDOW 3 32 56 VTop 2
SYMATTR InstName R11
SYMATTR Value 150
SYMBOL res 544 208 R90
WINDOW 0 0 56 VBottom 2
WINDOW 3 32 56 VTop 2
SYMATTR InstName R12
SYMATTR Value 10
SYMBOL voltage -32 512 R0
WINDOW 123 0 0 Left 0
WINDOW 39 0 0 Left 0
SYMATTR InstName V2
SYMATTR Value PULSE(0.2 2 10m 100m 0 1)
SYMBOL diode 624 -128 M180
WINDOW 0 32 32 Left 2
WINDOW 3 24 2 Left 2
SYMATTR InstName D2
SYMATTR Value GSD2004W-V
SYMBOL zener 624 -272 R0
WINDOW 0 30 8 Left 2
WINDOW 3 35 32 Left 2
WINDOW 123 24 58 Left 2
SYMATTR InstName D3
SYMATTR Value KDZLV150
SYMATTR Value2 N=4
SYMATTR Description Diode
SYMATTR Type diode
SYMBOL nmos 592 144 R0
SYMATTR InstName M1
SYMATTR Value AOD280A60
SYMBOL 750817251 704 -304 R0
SYMATTR InstName T1
TEXT 864 496 Left 2 !.tran 120m
TEXT 240 -328 Bottom 2 ;LT3799-1 - Offline Isolated Flyback LED Controller with Active PFC \nInput: 277VAC   Output: 3A/36V
TEXT -408 632 Left 2 ;Note:\n  If the simulation model is not found please update with the "Sync Release" command from the "Tools" menu.\n  It remains the customer's responsibility to verify proper and reliable operation in the actual application.\n  Component substitution and printed circuit board layout may significantly affect circuit performance or reliability.\n  Contact your local sales representative for assistance. This circuit is distributed to customers only for use with LTC parts.\n  Copyright © 2012 Linear Technology Inc. All rights reserved.
