Version 4.1
SHEET 1 1164 680
WIRE 336 -160 176 -160
WIRE 560 -160 336 -160
WIRE 656 -160 560 -160
WIRE 704 -160 656 -160
WIRE 960 -160 704 -160
WIRE 368 -80 336 -80
WIRE 464 -80 448 -80
WIRE 560 -80 528 -80
WIRE 656 -80 656 -96
WIRE 656 -80 560 -80
WIRE 704 -48 704 -160
WIRE 720 -48 704 -48
WIRE 944 16 928 16
WIRE 656 48 656 -80
WIRE 720 48 656 48
WIRE 944 48 944 16
WIRE 944 48 928 48
WIRE 720 80 656 80
WIRE 960 80 960 -160
WIRE 960 80 928 80
WIRE -16 112 -96 112
WIRE 96 112 64 112
WIRE 336 112 336 -80
WIRE 336 112 288 112
WIRE 656 112 656 80
WIRE 656 112 336 112
WIRE -96 128 -96 112
WIRE 656 128 656 112
WIRE 64 208 -96 208
WIRE 96 208 64 208
WIRE 656 208 656 192
WIRE 656 208 288 208
WIRE 928 208 656 208
WIRE 944 208 944 48
WIRE 944 208 928 208
WIRE 64 224 64 208
WIRE 928 224 928 208
FLAG 928 224 0
FLAG 64 224 0
FLAG 176 -80 0
SYMBOL res 80 96 R90
WINDOW 0 0 56 VBottom 2
WINDOW 3 32 56 VTop 2
SYMATTR InstName R1
SYMATTR Value 1k
SYMBOL res 320 -176 R0
SYMATTR InstName R2
SYMATTR Value 10k
SYMBOL res 544 -176 R0
SYMATTR InstName R3
SYMATTR Value 100k
SYMBOL res 464 -96 R90
WINDOW 0 0 56 VBottom 2
WINDOW 3 32 56 VTop 2
SYMATTR InstName R4
SYMATTR Value 10k
SYMBOL zener 672 -96 R180
WINDOW 0 24 64 Left 2
WINDOW 3 24 0 Left 2
SYMATTR InstName D1
SYMATTR Value BZX84C15L
SYMBOL zener 672 192 R180
WINDOW 0 24 64 Left 2
WINDOW 3 24 0 Left 2
SYMATTR InstName D2
SYMATTR Value BZX84C15L
SYMBOL Optos\\PC817B 192 160 R0
SYMATTR InstName U1
SYMBOL diode 528 -96 R90
WINDOW 0 0 32 VBottom 2
WINDOW 3 32 32 VTop 2
SYMATTR InstName D3
SYMATTR Value 1N4148
SYMBOL voltage 176 -176 R0
WINDOW 123 0 0 Left 0
WINDOW 39 0 0 Left 0
SYMATTR InstName V1
SYMATTR Value 40
SYMBOL voltage -96 112 R0
WINDOW 123 0 0 Left 0
WINDOW 39 0 0 Left 0
SYMATTR InstName V2
SYMATTR Value PULSE(0 3.3 1m 0 0 1m 2m 10)
SYMBOL FDMQ8205A\ SPICE\\FDMQ8205A 832 16 M0
SYMATTR InstName U2
TEXT 320 -248 Left 2 !.tran 10m
